units(length='cm', time='s', quantity='mol', act_energy='cal/mol')

ideal_gas(name='gas',
          elements="C H N",
          species="""N2              H2              CH4             C2H2            C2H4           
                                      
                     C2H6            C3H2            PC3H4           AC3H4           C3H6            
                     C3H8            C4H2            C4H4             
                     C4H6            IC4H8           
                     NC4H8           IC4H10          
                     NC4H10          CYC5H6                     
                     C5H8            CYC5H8                   
                     IC5H10          NC5H10          
                                   
                     NEOC5H12        NC5H12          
                     C6H2            C6H4            BENZYNE         
                     LC6H6           C6H6                      
                     CYC6H8          MCPTD           CYC6H10         
                     CYC6H12         NC6H12          C7H8             CH3CH3-C5H6     MCYC6           NC7H14          
                     NC7H16          
                     C8H2            C6H5C2H         C6H5C2H3        
                     XYLENE          C6H5C2H5        IC8H16          
                                     IC8H18          INDENE                   
                     TMBENZ          NPBENZ          C10H8                    
                     C10H10          TETRALIN        DCYC5           DECALIN          RODECA       
                     ODECAL          NC10H20         NC10H22         
                     C10H7CH3                  
                     C12H8                    
                     BIPHENYL        C12H18          C12H22                
                     NC12H26         FLUORENE        C6H5CH2C6H5               
                     C14H10          C6H5C2H4C6H5    C16H10                      
                     NC16H34         IC16H34                      
                            
                     BIN1B           BIN1A           H               
                     C               CSOLID          CH              
                     CH2S            CH2             CH3             
                     C2H                         
                     C2H3                                 
                     C2H5                      
                           
                     C3H3            CHCHCH3         CH2CCH3         CH2CHCH2                  
                     NC3H7           
                     IC3H7                           
                     C4H3            
                     C4H5            CH2C3H5         SC4H7           IC4H7           
                     IC4H9P          IC4H9T          NC4H9S          NC4H9P          
                       
                     CYC5H5                     
                     C5H7            NC5H9-3                               
                     NEOC5H11        NC5H11                             
                                      
                     C6H3            C6H5            
                     LC6H5           CYC6H9                   
                     CYC6H11                  
                     C7H7            
                     C6H4CH3         RMCYC6          NC7H13          
                                       
                     NC7H15          C6H4C2H         
                     C6H5C2H2        C8H9            RXYLENE         IC8H17                
                     INDENYL         RC9H11          C10H7           RTETRALIN       
                     RDECALIN                           
                     NC10H19         NC10H21                     
                     C10H7CH2        C10H6CH3                  
                     C12H7           
                     RBIPHENYL       NC12H25                           
                     C14H9           C16H9           IC16H33         NC16H33               
                                                   
                     """,
          reactions='all',
          transport='Mix',
          initial_state=state(temperature=300.0, pressure=OneAtm))

#-------------------------------------------------------------------------------
# Species data
#-------------------------------------------------------------------------------
species(name='H2',
        atoms='H:2',
        thermo=(NASA([300.00, 750.00],
                     [ 3.08866003E+00,  2.53968841E-03, -5.72992027E-06,
                       5.71701843E-09, -1.98865970E-12, -9.92148124E+02,
                      -2.43823459E+00]),
                NASA([750.00, 3500.00],
                     [ 3.73110902E+00, -8.86706214E-04,  1.12286897E-06,
                      -3.74349782E-10,  4.17963674E-14, -1.08851547E+03,
                      -5.35285855E+00])),
        transport=gas_transport(geom='linear',
                                diam=2.92,
                                well_depth=38.0,
                                polar=0.79,
                                rot_relax=280.0))

species(name='N2',
        atoms='N:2',
        thermo=(NASA([300.00, 1050.00],
                     [ 3.85321336E+00, -2.44053349E-03,  5.35160392E-06,
                      -3.75608397E-09,  9.22684330E-13, -1.07969550E+03,
                       1.60217419E+00]),
                NASA([1050.00, 3500.00],
                     [ 2.71287897E+00,  1.90359754E-03, -8.54297556E-07,
                       1.84170938E-10, -1.54715988E-14, -8.40225273E+02,
                       7.15926558E+00])),
        transport=gas_transport(geom='linear',
                                diam=3.621,
                                well_depth=97.53,
                                polar=1.76,
                                rot_relax=4.0))

species(name='C2H6',
        atoms='H:6 C:2',
        thermo=(NASA([300.00, 1800.00],
                     [-2.74461309E-01,  2.56422430E-02, -1.44720586E-05,
                       4.30555164E-09, -5.30740425E-13, -1.10464360E+04,
                       2.20452775E+01]),
                NASA([1800.00, 3500.00],
                     [ 4.39373503E+00,  1.52684734E-02, -5.82725051E-06,
                       1.10377088E-09, -8.60486537E-14, -1.27269866E+04,
                      -3.21997495E+00])),
        transport=gas_transport(geom='nonlinear',
                                diam=4.302,
                                well_depth=252.3,
                                rot_relax=1.5))


species(name='CH4',
        atoms='H:4 C:1',
        thermo=(NASA([300.00, 1070.00],
                     [ 2.85765313E+00,  2.53571100E-03,  9.67916346E-06,
                      -8.69880870E-09,  2.25599770E-12, -1.00357904E+04,
                       4.98969392E+00]),
                NASA([1070.00, 3500.00],
                     [-2.82321416E-01,  1.42739336E-02, -6.77628877E-06,
                       1.55380951E-09, -1.39473841E-13, -9.36383584E+03,
                       2.03507024E+01])),
        transport=gas_transport(geom='nonlinear',
                                diam=3.746,
                                well_depth=141.4,
                                polar=2.6,
                                rot_relax=13.0))



species(name='C2H2',
        atoms='H:2 C:2',
        thermo=(NASA([300.00, 970.00],
                     [ 1.83812159E+00,  1.64533925E-02, -1.93408005E-05,
                       1.24068047E-08, -3.14627391E-12,  2.61425043E+04,
                       9.54239252E+00]),
                NASA([970.00, 3500.00],
                     [ 4.61193612E+00,  5.01498204E-03, -1.65253694E-06,
                       2.49922532E-10, -1.30568636E-14,  2.56043843E+04,
                      -3.75517096E+00])),
        transport=gas_transport(geom='linear',
                                diam=4.1,
                                well_depth=209.0,
                                rot_relax=2.5))



species(name='C2H4',
        atoms='H:4 C:2',
        thermo=(NASA([300.00, 1800.00],
                     [ 2.66161697E-01,  1.94272328E-02, -1.14541158E-05,
                       3.49691054E-09, -4.39228267E-13,  5.45399123E+03,
                       1.95264329E+01]),
                NASA([1800.00, 3500.00],
                     [ 4.49333672E+00,  1.00335105E-02, -3.62601388E-06,
                       5.97613541E-10, -3.65481279E-14,  3.93220822E+03,
                      -3.35192020E+00])),
        transport=gas_transport(geom='nonlinear',
                                diam=3.971,
                                well_depth=280.8,
                                rot_relax=1.5))

species(name='C3H2',
        atoms='H:2 C:3',
        thermo=(NASA([300.00, 700.00],
                     [ 4.26055345E+00,  1.71049341E-02, -2.71455812E-05,
                       2.40526578E-08, -8.44530180E-12,  6.33877755E+04,
                       4.25633816E+00]),
                NASA([700.00, 3500.00],
                     [ 6.27665898E+00,  5.58433105E-03, -2.45857473E-06,
                       5.41223006E-10, -4.83608105E-14,  6.31055207E+04,
                      -4.75111128E+00])),
        transport=gas_transport(geom='nonlinear',
                                diam=4.1,
                                well_depth=209.0,
                                rot_relax=1.0))

species(name='PC3H4',
        atoms='H:4 C:3',
        thermo=(NASA([300.00, 920.00],
                     [ 1.35943188E+00,  2.53869187E-02, -2.11228852E-05,
                       1.09324785E-08, -2.57374996E-12,  2.09309378E+04,
                       1.53500040E+01]),
                NASA([920.00, 3500.00],
                     [ 3.04156590E+00,  1.80732925E-02, -9.19849468E-06,
                       2.29161583E-09, -2.25689445E-13,  2.06214251E+04,
                       7.37493873E+00])),
        transport=gas_transport(geom='linear',
                                diam=4.76,
                                well_depth=252.0,
                                rot_relax=1.0))

species(name='AC3H4',
        atoms='H:4 C:3',
        thermo=(NASA([300.00, 1800.00],
                     [ 1.21562918E+00,  2.35625008E-02, -1.47340944E-05,
                       4.68570404E-09, -5.99570704E-13,  2.26674413E+04,
                       1.58066578E+01]),
                NASA([1800.00, 3500.00],
                     [ 6.64430238E+00,  1.14987825E-02, -4.68099585E-06,
                       9.62334222E-10, -8.24360065E-14,  2.07131189E+04,
                      -1.35744541E+01])),
        transport=gas_transport(geom='linear',
                                diam=4.76,
                                well_depth=252.0))

species(name='C3H6',
        atoms='H:6 C:3',
        thermo=(NASA([300.00, 1800.00],
                     [-2.61886761E-01,  3.20704567E-02, -2.02723602E-05,
                       6.66956086E-09, -8.90307969E-13,  1.26157099E+03,
                       2.37162283E+01]),
                NASA([1800.00, 3500.00],
                     [ 9.21549195E+00,  1.10096151E-02, -2.72165887E-06,
                       1.69301120E-10,  1.25058839E-14, -2.15028535E+03,
                      -2.75773224E+01])),
        transport=gas_transport(geom='nonlinear',
                                diam=4.14,
                                well_depth=307.8,
                                rot_relax=1.0))

species(name='C3H8',
        atoms='H:8 C:3',
        thermo=(NASA([300.00, 1800.00],
                     [-1.25512725E+00,  4.04983533E-02, -2.56340099E-05,
                       8.45078153E-09, -1.13046094E-12, -1.37271555E+04,
                       2.86189366E+01]),
                NASA([1800.00, 3500.00],
                     [ 1.08596364E+01,  1.35766563E-02, -3.19926248E-06,
                       1.41615801E-10,  2.35898562E-14, -1.80884704E+04,
                      -3.69486914E+01])),
        transport=gas_transport(geom='nonlinear',
                                diam=4.81,
                                well_depth=303.4,
                                rot_relax=1.0))

species(name='C4H2',
        atoms='H:2 C:4',
        thermo=(NASA([300.00, 1050.00],
                     [ 2.90907865E+00,  2.82837048E-02, -3.29747633E-05,
                       1.97614098E-08, -4.63129497E-12,  5.43474279E+04,
                       6.37839155E+00]),
                NASA([1050.00, 3500.00],
                     [ 8.50275797E+00,  6.97445022E-03, -2.53297106E-06,
                       4.33287765E-10, -2.93611469E-14,  5.31727553E+04,
                      -2.08807943E+01])),
        transport=gas_transport(geom='linear',
                                diam=5.18,
                                well_depth=357.0,
                                rot_relax=1.0))

species(name='C4H4',
        atoms='H:4 C:4',
        thermo=(NASA([300.00, 1190.00],
                     [ 4.03184847E-01,  3.66937767E-02, -3.27936077E-05,
                       1.57416564E-08, -3.10035746E-12,  3.27321448E+04,
                       2.15965194E+01]),
                NASA([1190.00, 3500.00],
                     [ 6.36293592E+00,  1.66610000E-02, -7.54220850E-06,
                       1.59521425E-09, -1.28415834E-13,  3.13137240E+04,
                      -8.19255288E+00])),
        transport=gas_transport(geom='nonlinear',
                                diam=5.18,
                                well_depth=357.0,
                                rot_relax=1.0))

species(name='C4H6',
        atoms='H:6 C:4',
        thermo=(NASA([300.00, 1550.00],
                     [-1.04533857E+00,  4.24894928E-02, -3.12557510E-05,
                       1.20001840E-08, -1.85870818E-12,  1.19186275E+04,
                       2.79839806E+01]),
                NASA([1550.00, 3500.00],
                     [ 9.55395345E+00,  1.51364811E-02, -4.78509457E-06,
                       6.14955374E-10, -2.23809938E-14,  8.63284693E+03,
                      -2.77966685E+01])),
        transport=gas_transport(geom='nonlinear',
                                diam=5.18,
                                well_depth=357.0,
                                rot_relax=1.0))

species(name='IC4H8',
        atoms='H:8 C:4',
        thermo=(NASA([300.00, 1800.00],
                     [ 7.17301598E-01,  4.01434653E-02, -2.33509125E-05,
                       6.92571993E-09, -8.39035734E-13, -3.72372397E+03,
                       2.01415164E+01]),
                NASA([1800.00, 3500.00],
                     [ 7.63433967E+00,  2.47722696E-02, -1.05415828E-05,
                       2.18152373E-09, -1.80119594E-13, -6.21385768E+03,
                      -1.72949366E+01])),
        transport=gas_transport(geom='nonlinear',
                                diam=4.65,
                                well_depth=355.0,
                                rot_relax=1.0))

species(name='NC4H8',
        atoms='H:8 C:4',
        thermo=(NASA([300.00, 1170.00],
                     [-1.05707773E+00,  4.63544964E-02, -3.23509995E-05,
                       1.30416212E-08, -2.37313546E-12, -1.55478186E+03,
                       3.05429525E+01]),
                NASA([1170.00, 3500.00],
                     [ 2.98709814E+00,  3.25282541E-02, -1.46250479E-05,
                       2.94136385E-09, -2.14960813E-13, -2.50111901E+03,
                       1.03971909E+01])),
        transport=gas_transport(geom='nonlinear',
                                diam=4.65,
                                well_depth=355.0,
                                rot_relax=1.0))





species(name='IC4H10',
        atoms='H:10 C:4',
        thermo=(NASA([300.00, 1260.00],
                     [-1.85965328E+00,  5.58007940E-02, -3.97537190E-05,
                       1.61302002E-08, -2.91200067E-12, -1.78430198E+04,
                       3.09610166E+01]),
                NASA([1260.00, 3500.00],
                     [ 5.51955794E+00,  3.23747266E-02, -1.18655436E-05,
                       1.37455178E-09,  1.57073476E-14, -1.97025810E+04,
                      -6.34483422E+00])),
        transport=gas_transport(geom='nonlinear',
                                diam=5.24,
                                well_depth=352.0,
                                rot_relax=1.0))

species(name='NC4H10',
        atoms='H:10 C:4',
        thermo=(NASA([300.00, 1800.00],
                     [-1.20836758E+00,  5.26137081E-02, -3.39705640E-05,
                       1.13561294E-08, -1.53219963E-12, -1.68537208E+04,
                       2.98384958E+01]),
                NASA([1800.00, 3500.00],
                     [ 1.54355362E+01,  1.56272553E-02, -3.14852000E-06,
                      -5.94424182E-11,  5.32964635E-14, -2.28455262E+04,
                      -6.02417835E+01])),
        transport=gas_transport(geom='nonlinear',
                                diam=5.24,
                                well_depth=352.0,
                                rot_relax=1.0))

species(name='CYC5H6',
        atoms='H:6 C:5',
        thermo=(NASA([300.00, 1020.00],
                     [-6.32922867E+00,  6.93993183E-02, -6.82623529E-05,
                       3.63968870E-08, -8.08274648E-12,  1.54866915E+04,
                       5.11475893E+01]),
                NASA([1020.00, 3500.00],
                     [ 1.70141558E+00,  3.79065957E-02, -2.19495256E-05,
                       6.12706526E-09, -6.63672518E-13,  1.38484401E+04,
                       1.22453451E+01])),
        transport=gas_transport(geom='nonlinear',
                                diam=5.2,
                                well_depth=408.0,
                                rot_relax=1.0))

species(name='C5H8',
        atoms='H:8 C:5',
        thermo=(NASA([300.00, 1430.00],
                     [ 1.19183502E+00,  4.68276543E-02, -3.12245763E-05,
                       1.14435811E-08, -1.82614328E-12,  6.90073958E+03,
                       1.62025638E+01]),
                NASA([1430.00, 3500.00],
                     [ 8.95829159E+00,  2.51033002E-02, -8.43679234E-06,
                       8.19905621E-10,  3.11426511E-14,  4.67953300E+03,
                      -2.40439628E+01])),
        transport=gas_transport(geom='nonlinear',
                                diam=5.2,
                                well_depth=408.0,
                                rot_relax=1.0))

species(name='CYC5H8',
        atoms='H:8 C:5',
        thermo=(NASA([300.00, 1460.00],
                     [-6.56863980E+00,  6.82031726E-02, -5.30140751E-05,
                       2.12327757E-08, -3.43229252E-12,  3.28126920E+03,
                       5.42801525E+01]),
                NASA([1460.00, 3500.00],
                     [ 8.43099915E+00,  2.71082714E-02, -1.07932862E-05,
                       1.95387666E-09, -1.31111174E-13, -1.09862538E+03,
                      -2.37608447E+01])),
        transport=gas_transport(geom='linear',
                                diam=5.2,
                                well_depth=408.0,
                                rot_relax=1.0))

species(name='IC5H10',
        atoms='H:10 C:5',
        thermo=(NASA([300.00, 1800.00],
                     [-1.59634535E+00,  5.98666259E-02, -4.08893110E-05,
                       1.44173977E-08, -2.01088244E-12, -4.40276906E+03,
                       3.46986831E+01]),
                NASA([1800.00, 3500.00],
                     [ 2.13459841E+01,  8.88367161E-03,  1.59648418E-06,
                      -1.31808203E-09,  1.74600856E-13, -1.26620076E+04,
                      -8.94699897E+01])),
        transport=gas_transport(geom='nonlinear',
                                diam=5.2,
                                well_depth=408.0,
                                rot_relax=1.0))

species(name='NC5H10',
        atoms='H:10 C:5',
        thermo=(NASA([300.00, 1800.00],
                     [-6.89551964E-01,  5.46638348E-02, -3.33910611E-05,
                       1.03751453E-08, -1.30620882E-12, -5.97063504E+03,
                       3.03853541E+01]),
                NASA([1800.00, 3500.00],
                     [ 1.11929736E+01,  2.82582223E-02, -1.13863841E-05,
                       2.22526491E-09, -1.74280993E-13, -1.02483443E+04,
                      -3.39253533E+01])),
        transport=gas_transport(geom='nonlinear',
                                diam=5.2,
                                well_depth=408.0,
                                rot_relax=1.0))

species(name='NEOC5H12',
        atoms='H:12 C:5',
        thermo=(NASA([300.00, 1700.00],
                     [-2.62463460E+00,  7.07864446E-02, -4.84369376E-05,
                       1.67957680E-08, -2.33138901E-12, -2.22478177E+04,
                       3.25342362E+01]),
                NASA([1700.00, 3500.00],
                     [ 1.58220811E+01,  2.73824077E-02, -1.01392581E-05,
                       1.77707009E-09, -1.22756971E-13, -2.85197010E+04,
                      -6.62488521E+01])),
        transport=gas_transport(geom='nonlinear',
                                diam=5.64,
                                well_depth=392.0,
                                rot_relax=1.0))

species(name='NC5H12',
        atoms='H:12 C:5',
        thermo=(NASA([300.00, 1800.00],
                     [-1.97000865E+00,  6.65997861E-02, -4.45783403E-05,
                       1.54454657E-08, -2.12245414E-12, -1.97055401E+04,
                       3.51537401E+01]),
                NASA([1800.00, 3500.00],
                     [ 2.12559082E+01,  1.49866375E-02, -1.56738312E-06,
                      -4.84518435E-10,  9.00436509E-14, -2.80668702E+04,
                      -9.05497671E+01])),
        transport=gas_transport(geom='nonlinear',
                                diam=5.64,
                                well_depth=392.0,
                                rot_relax=1.0))

species(name='C6H2',
        atoms='H:2 C:6',
        thermo=(NASA([300.00, 1100.00],
                     [ 4.40206371E+00,  3.69889013E-02, -4.11296144E-05,
                       2.34328238E-08, -5.23078218E-12,  8.27514710E+04,
                       1.22022725E+00]),
                NASA([1100.00, 3500.00],
                     [ 1.20007067E+01,  9.35747205E-03, -3.45039279E-06,
                       5.96931921E-10, -4.08067421E-14,  8.10797696E+04,
                      -3.61630610E+01])),
        transport=gas_transport(geom='linear',
                                diam=5.18,
                                well_depth=357.0,
                                rot_relax=1.0))

species(name='C6H4',
        atoms='H:4 C:6',
        thermo=(NASA([300.00, 1360.00],
                     [-1.17305610E+00,  6.09713718E-02, -6.13761529E-05,
                       2.96855443E-08, -5.44506791E-12,  6.00209374E+04,
                       2.96241244E+01]),
                NASA([1360.00, 3500.00],
                     [ 1.74447675E+01,  6.21306708E-03, -9.80963858E-07,
                       8.00594635E-11, -2.88320770E-15,  5.49568894E+04,
                      -6.59208082E+01])),
        transport=gas_transport(geom='nonlinear',
                                diam=5.349,
                                well_depth=412.3,
                                rot_relax=1.0))

species(name='BENZYNE',
        atoms='H:4 C:6',
        thermo=(NASA([300.00, 1400.00],
                     [-3.73796173E+00,  5.69931634E-02, -5.02311341E-05,
                       2.22206478E-08, -3.86741452E-12,  5.44418140E+04,
                       4.04070822E+01]),
                NASA([1400.00, 3500.00],
                     [ 1.09465819E+01,  1.50373246E-02, -5.27844959E-06,
                       8.14607581E-10, -4.49073366E-14,  5.03301418E+04,
                      -3.53782934E+01])),
        transport=gas_transport(geom='nonlinear',
                                diam=5.23,
                                well_depth=468.5,
                                polar=10.3,
                                rot_relax=1.0))

species(name='LC6H6',
        atoms='H:6 C:6',
        thermo=(NASA([300.00, 1250.00],
                     [-1.05889383E+00,  6.36321466E-02, -6.08598062E-05,
                       2.98747613E-08, -5.80412585E-12,  3.90228046E+04,
                       2.94875281E+01]),
                NASA([1250.00, 3500.00],
                     [ 1.28863876E+01,  1.90072461E-02, -7.30992558E-06,
                       1.31482495E-09, -9.21385789E-14,  3.55364843E+04,
                      -4.09021933E+01])),
        transport=gas_transport(geom='nonlinear',
                                diam=5.349,
                                well_depth=412.3,
                                rot_relax=1.0))

species(name='C6H6',
        atoms='H:6 C:6',
        thermo=(NASA([300.00, 1550.00],
                     [-6.33361145E+00,  6.93997541E-02, -5.72004958E-05,
                       2.35161421E-08, -3.76756698E-12,  9.21714860E+03,
                       5.01102066E+01]),
                NASA([1550.00, 3500.00],
                     [ 1.57365829E+01,  1.24444139E-02, -2.08242468E-06,
                      -1.90555168E-10,  5.60938650E-14,  2.37538837E+03,
                      -6.60380946E+01])),
        transport=gas_transport(geom='nonlinear',
                                diam=5.23,
                                well_depth=468.5,
                                polar=10.3,
                                rot_relax=1.0))

                                

species(name='CYC6H8',
        atoms='H:8 C:6',
        thermo=(NASA([300.00, 1490.00],
                     [-6.91358136E+00,  7.63364895E-02, -5.84944135E-05,
                       2.25336547E-08, -3.48567018E-12,  1.03834500E+04,
                       5.40276160E+01]),
                NASA([1490.00, 3500.00],
                     [ 8.66772260E+00,  3.45074855E-02, -1.63846780E-05,
                       3.69260975E-09, -3.24421026E-13,  5.74022139E+03,
                      -2.73566208E+01])),
        transport=gas_transport(geom='nonlinear',
                                diam=5.23,
                                well_depth=468.5,
                                polar=10.3,
                                rot_relax=1.0))

species(name='MCPTD',
        atoms='H:8 C:6',
        thermo=(NASA([300.00, 1540.00],
                     [-6.52219774E+00,  7.36742157E-02, -5.67229776E-05,
                       2.19470452E-08, -3.37525585E-12,  1.17551907E+04,
                       5.32489849E+01]),
                NASA([1540.00, 3500.00],
                     [ 1.14154101E+01,  2.70830264E-02, -1.13419491E-05,
                       2.30157826E-09, -1.86056675E-13,  6.23040748E+03,
                      -4.10347479E+01])),
        transport=gas_transport(geom='nonlinear',
                                diam=5.2,
                                well_depth=408.0,
                                rot_relax=1.0))

species(name='CYC6H10',
        atoms='H:10 C:6',
        thermo=(NASA([300.00, 1800.00],
                     [-6.01517655E+00,  7.46974737E-02, -4.97438791E-05,
                       1.64210093E-08, -2.15243611E-12, -1.67589399E+03,
                       5.21114707E+01]),
                NASA([1800.00, 3500.00],
                     [ 1.51624858E+01,  2.76360017E-02, -1.05259858E-05,
                       1.89586361E-09, -1.35054773E-13, -9.29985245E+03,
                      -6.25064559E+01])),
        transport=gas_transport(geom='nonlinear',
                                diam=5.23,
                                well_depth=468.5,
                                polar=10.3,
                                rot_relax=1.0))

species(name='CYC6H12',
        atoms='H:12 C:6',
        thermo=(NASA([300.00, 1800.00],
                     [-9.43363126E+00,  8.94163897E-02, -5.85630607E-05,
                       1.87341134E-08, -2.37225913E-12, -1.55950776E+04,
                       6.72000574E+01]),
                NASA([1800.00, 3500.00],
                     [ 1.12578097E+01,  4.34354098E-02, -2.02455774E-05,
                       4.54245292E-09, -4.01195170E-13, -2.30439963E+04,
                      -4.47863376E+01])),
        transport=gas_transport(geom='nonlinear',
                                diam=5.23,
                                well_depth=468.5,
                                polar=10.3,
                                rot_relax=1.0))

species(name='NC6H12',
        atoms='H:12 C:6',
        thermo=(NASA([300.00, 1780.00],
                     [-1.85358315E+00,  7.25469181E-02, -5.02818725E-05,
                       1.80498673E-08, -2.58221827E-12, -7.31503024E+03,
                       3.72569567E+01]),
                NASA([1780.00, 3500.00],
                     [ 2.80951654E+01,  5.24635942E-03,  6.43208138E-06,
                      -3.19131389E-09,  4.01093698E-13, -1.79767847E+04,
                      -1.24497292E+02])),
        transport=gas_transport(geom='nonlinear',
                                diam=5.349,
                                well_depth=412.3,
                                rot_relax=1.0))



species(name='C7H8',
        atoms='H:8 C:7',
        thermo=(NASA([300.00, 1450.00],
                     [-6.02884975E+00,  7.77532977E-02, -6.10481840E-05,
                       2.48568442E-08, -4.12367417E-12,  4.83263000E+03,
                       5.21761133E+01]),
                NASA([1450.00, 3500.00],
                     [ 1.25818443E+01,  2.64134519E-02, -7.93799879E-06,
                       4.38368241E-10,  8.64078959E-14, -5.64471283E+02,
                      -4.45247833E+01])),
        transport=gas_transport(geom='nonlinear',
                                diam=5.68,
                                well_depth=495.3,
                                dipole=0.43,
                                polar=12.3,
                                rot_relax=1.0))

species(name='CH3CH3-C5H6',
        atoms='H:12 C:7',
        thermo=(NASA([300.00, 1310.00],