#
# Generated from file chem.inp
# by ck2cti on Thu Jan 20 13:57:11 2011
# Modified with species and reactions from Ranzi et al on Mon Jan 31 2011
#
# Transport and Thermo Data come from Creck Library
# Cellulose Properties approximated as Levoglucosan (C5H10O5)
# Hemicellulose Properties approximated as Xylofuranose (C5H8O4)
# Lignin Properties approximated as C11H12O4
# Transport properties for species not in Creck were approximated
# Reaction 2805 kinetic data was approximated
# Reaction 2785 kinetic data was approximated
# File History:
# Biomass.cti --> Combined Creck File and Ranzi's devolotilization mechanism.  Also added Char gasification reaction
# Biomass2.cti --> Slightly modified some component thermodynamic data to get continuous heat capacity between low polynomal and high polynomial 
# Biomass3.cti --> Changed biomass component properties to equivalent gas approximations from graphite.  (Cellulose properties would be the same as LVG)
# Biomass4.cti --> Modified heat of formation of initial biomass components to represent an intial energy sink going from solids to gases

units(length = "cm", time = "s", quantity = "mol", act_energy = "cal/mol")

ideal_gas(name = "gas",
      elements = " C  H  Cl  O  N  Ar  He ",
      species = """  
				   HE  AR  N2  O2  H2  H2O  H2O2  CO  CO2  CH2O 
                   HCO3H  CH4  CH3OH  CH3OOH  C2H2  CH2CO  C2H2O2  C2H4  CH3CHO  C2H4O 
                   CH3COOH  C2H4O2  CH3CO3H  C2-OQOOH  DME-OQOOH  C2H6  CH3OCH3  C2H5OH  GLIET  C2H5OOH 
                   C3H2  AC3H4  PC3H4  C2H3CHO  C3H4O2  C3H4O3  C3H6  CH3COCH3  C2H5CHO  C3H6O2 
                   C3H8  IC3H7OH  NC3H7OH  C4H2  C4H4  C4H4O  C4H6  IC3H5CHO  C4H6O2  NC4H8 
                   IC4H8  C4H8O  IC3H7CHO  DMGLE  C5H4O2  CYC5H6  C5H8  C5H8O4 C5H10O5 IC5H10  MTBE-O 
                   MTBE-OQOOH  MTBE  C6H6  C6H5OH  C6H6O3  C6H8O4  C6H10O5  DIPE  TAME  ETBE 
                   C8H10O3  C9H10O2  C10H8  C11H12O4  O  H  OH  HO2  C C(gr) CH 
                   HCO  HCO3  CH2S  CH2  CH3  CH2OH  CH3O  CH3OO  C2H  HCCO 
                   C2H3  CH2CHO  CH3CO  CH3CO3  C2H5  C2H4OH  CH3CHOH  CH3OCH2  C2-QOOH  C2H5OO 
                   DME-QOOH  DME-OO  C2-OOQOOH  DME-OOQOOH  C3H3  CH2CHCH2  CHCHCH3  C2H4CHO  CH3COCH2  NC3H7 
                   IC3H7  C3H6OH  C4H3  C4H3O  C4H5  C3H4CH3  IC4H7  CH2C3H5  IC4H9T  NC4H9S 
                   CYC5H5  RMTBE  NEOC5-QOOH  NC5-QOOH  MTBE-QOOH  MTBE-OO  MTBE-OOQOOH  C6H5  C6H5O  RDIPE 
                  """,
      reactions = "all",
      transport = "Mix",
      initial_state = state(temperature = 300.0,
                        pressure = OneAtm)    )



#-------------------------------------------------------------------------------
#  Species data 
#-------------------------------------------------------------------------------


		
species(name = "HE",
    atoms = " He:1 ",
    thermo = (
       NASA( [  300.00,  1000.00], [ 2.500000000E+000,  0.000000000E+000, 
               0.000000000E+000,  0.000000000E+000,  0.000000000E+000,
              -7.453750000E+002,  9.287239740E-001] ),
       NASA( [ 1000.00,  5000.00], [ 2.500000000E+000,  0.000000000E+000, 
               0.000000000E+000,  0.000000000E+000,  0.000000000E+000,
              -7.453750000E+002,  9.287239740E-001] )
             ),
    transport = gas_transport(
                     geom = "atom",
                     diam = 2.576,
                     well_depth = 10.2)
       )


	   
species(name = "AR",
    atoms = " Ar:1 ",
    thermo = (
       NASA( [  300.00,  1000.00], [ 2.500000000E+000,  0.000000000E+000, 
               0.000000000E+000,  0.000000000E+000,  0.000000000E+000,
              -7.453751000E+002,  4.366001000E+000] ),
       NASA( [ 1000.00,  5000.00], [ 3.125000090E+000, -1.406250500E-003, 
               9.375004900E-007, -1.562500800E-010,  0.000000000E+000,
              -9.406875830E+002,  1.038236940E+000] )
             ),
    transport = gas_transport(
                     geom = "atom",
                     diam = 3.33,
                     well_depth = 136.5)
       )

species(name = "N2",
    atoms = " N:2 ",
    thermo = (
       NASA( [  300.00,  1000.00], [ 3.298677000E+000,  1.408239900E-003, 
              -3.963221800E-006,  5.641514800E-009, -2.444854000E-012,
              -1.020900000E+003,  3.950372000E+000] ),
       NASA( [ 1000.00,  5000.00], [ 2.926637880E+000,  1.487977000E-003, 
              -5.684760300E-007,  1.009704000E-010, -6.753350900E-015,
              -9.227953840E+002,  5.980540180E+000] )
             ),
    transport = gas_transport(
                     geom = "linear",
                     diam = 3.621,
                     well_depth = 97.53,
                     polar = 1.76,
                     rot_relax = 4)
       )

species(name = "O2",
    atoms = " O:2 ",
    thermo = (
       NASA( [  300.00,  1000.00], [ 3.212936000E+000,  1.127486100E-003, 
              -5.756149900E-007,  1.313877000E-009, -8.768553900E-013,
              -1.005249000E+003,  6.034739000E+000] ),
       NASA( [ 1000.00,  5000.00], [ 3.697576850E+000,  6.135196900E-004, 
              -1.258842000E-007,  1.775281000E-011, -1.136435000E-015,
              -1.233929660E+003,  3.189171250E+000] )
             ),
    transport = gas_transport(
                     geom = "linear",
                     diam = 3.458,
                     well_depth = 107.4,
                     polar = 1.6,
                     rot_relax = 3.8)
       )

species(name = "H2",
    atoms = " H:2 ",
    thermo = (
       NASA( [  300.00,  1000.00], [ 3.298124000E+000,  8.249441200E-004, 
              -8.143014700E-007, -9.475434300E-011,  4.134872000E-013,
              -1.012521000E+003, -3.294094000E+000] ),
       NASA( [ 1000.00,  5000.00], [ 2.991422200E+000,  7.000644100E-004, 
              -5.633828000E-008, -9.231578200E-012,  1.582752000E-015,
              -8.350335460E+002, -1.355106410E+000] )
             ),
    transport = gas_transport(
                     geom = "linear",
                     diam = 2.92,
                     well_depth = 38,
                     polar = 0.79,
                     rot_relax = 280)
       )

species(name = "H2O",
    atoms = " H:2  O:1 ",
    thermo = (
       NASA( [  300.00,  1000.00], [ 3.386842000E+000,  3.474982000E-003, 
              -6.354695900E-006,  6.968580400E-009, -2.506588000E-012,
              -3.020811000E+004,  2.590232000E+000] ),
       NASA( [ 1000.00,  5000.00], [ 2.672145690E+000,  3.056292900E-003, 
              -8.730260700E-007,  1.200996000E-010, -6.391617900E-015,
              -2.989921150E+004,  6.862811250E+000] )
             ),
    transport = gas_transport(
                     geom = "nonlinear",
                     diam = 2.605,
                     well_depth = 572.4,
                     dipole = 1.844,
                     rot_relax = 4)
       )

species(name = "H2O2",
    atoms = " H:2  O:2 ",
    thermo = (
       NASA( [  300.00,  1000.00], [ 3.388753000E+000,  6.569225800E-003, 
              -1.485012000E-007, -4.625805100E-009,  2.471514100E-012,
              -1.766314000E+004,  6.785363000E+000] ),
       NASA( [ 1000.00,  5000.00], [ 4.573165940E+000,  4.336135900E-003, 
              -1.474689000E-006,  2.348903000E-010, -1.431654100E-014,
              -1.800695310E+004,  5.011379150E-001] )
             ),
    transport = gas_transport(
                     geom = "nonlinear",
                     diam = 3.458,
                     well_depth = 107.4,
                     rot_relax = 3.8)
       )

species(name = "CO",
    atoms = " C:1  O:1 ",
    thermo = (
       NASA( [  300.00,  1000.00], [ 3.262451000E+000,  1.511941000E-003, 
              -3.881755200E-006,  5.581943800E-009, -2.474951000E-012,
              -1.431054000E+004,  4.848897000E+000] ),
       NASA( [ 1000.00,  5000.00], [ 3.025076170E+000,  1.442689000E-003, 
              -5.630827200E-007,  1.018581000E-010, -6.910951100E-015,
              -1.426834990E+004,  6.108225210E+000] )
             ),
    transport = gas_transport(
                     geom = "linear",
                     diam = 3.65,
                     well_depth = 98.1,
                     polar = 1.95,
                     rot_relax = 1.8)
       )

species(name = "CO2",
    atoms = " C:1  O:2 ",
    thermo = (
       NASA( [  300.00,  1000.00], [ 2.275724000E+000,  9.922072300E-003, 
              -1.040911000E-005,  6.866685900E-009, -2.117280100E-012,
              -4.837314000E+004,  1.018849000E+001] ),
       NASA( [ 1000.00,  5000.00], [ 4.453625820E+000,  3.140168000E-003, 
              -1.278411000E-006,  2.393996100E-010, -1.669033000E-014,
              -4.896695240E+004, -9.554200070E-001] )
             ),
    transport = gas_transport(
                     geom = "linear",
                     diam = 3.763,
                     well_depth = 244,
                     polar = 2.65,
                     rot_relax = 2.1)
       )

species(name = "CH2O",
    atoms = " C:1  H:2  O:1 ",
    thermo = (
       NASA( [  300.00,  1000.00], [ 1.652731000E+000,  1.263144000E-002, 
              -1.888167900E-005,  2.050031100E-008, -8.413237100E-012,
              -1.486540000E+004,  1.378482000E+001] ),
       NASA( [ 1000.00,  5000.00], [ 2.995608580E+000,  6.681321200E-003, 
              -2.628954000E-006,  4.737152900E-010, -3.212517100E-014,
              -1.532036660E+004,  6.912560520E+000] )
             ),
    transport = gas_transport(
                     geom = "nonlinear",
                     diam = 3.59,
                     well_depth = 498,
                     rot_relax = 2)
       )

species(name = "HCO3H",
    atoms = " C:1  H:2  O:3 ",
    thermo = (
       NASA( [  300.00,  1378.00], [ 2.424647260E+000,  2.197063800E-002, 
              -1.687055460E-005,  6.256121940E-009, -9.116458430E-013,
              -3.548280060E+004,  1.750277960E+001] ),
       NASA( [ 1378.00,  5000.00], [ 9.875035810E+000,  4.646637080E-003, 
              -1.672305220E-006,  2.686244130E-010, -1.595952320E-014,
              -3.805024560E+004, -2.249389420E+001] )
             ),
    transport = gas_transport(
                     geom = "nonlinear",
                     diam = 4.12,
                     well_depth = 443.2,
                     rot_relax = 1)
       )

species(name = "CH4",
    atoms = " C:1  H:4 ",
    thermo = (
       NASA( [  300.00,  1000.00], [ 7.787417000E-001,  1.747668000E-002, 
              -2.783409000E-005,  3.049708000E-008, -1.223931000E-011,
              -9.825228000E+003,  1.372219000E+001] ),
       NASA( [ 1000.00,  5000.00], [ 1.683465640E+000,  1.023724000E-002, 
              -3.875128200E-006,  6.785584900E-010, -4.503423100E-014,
              -1.008077730E+004,  9.623475750E+000] )
             ),
    transport = gas_transport(
                     geom = "nonlinear",
                     diam = 3.746,
                     well_depth = 141.4,
                     polar = 2.6,
                     rot_relax = 13)
       )

species(name = "CH3OH",
    atoms = " C:1  H:4  O:1 ",
    thermo = (
       NASA( [  300.00,  1000.00], [ 2.660115000E+000,  7.341507800E-003, 
               7.170050100E-006, -8.793193700E-009,  2.390569900E-012,
              -2.535348000E+004,  1.123263000E+001] ),
       NASA( [ 1000.00,  5000.00], [ 4.029077930E+000,  9.376592900E-003, 
              -3.050253800E-006,  4.358793000E-010, -2.224723100E-014,
              -2.615792230E+004,  2.378082550E+000] )
             ),
    transport = gas_transport(
                     geom = "nonlinear",
                     diam = 3.626,
                     well_depth = 481.8,
                     rot_relax = 1)
       )

species(name = "CH3OOH",
    atoms = " C:1  H:4  O:2 ",
    thermo = (
       NASA( [  300.00,  1000.00], [ 5.868651000E+000,  1.079424000E-002, 
              -3.645529900E-006,  5.412911800E-010, -2.896843900E-014,
              -1.812689000E+004, -2.517623000E+000] ),
       NASA( [ 1000.00,  5000.00], [ 5.636949930E+000,  1.118147800E-002, 
              -3.695933900E-006,  4.071898100E-010,  0.000000000E+000,
              -1.804427490E+004, -1.241666370E+000] )
             ),
    transport = gas_transport(
                     geom = "nonlinear",
                     diam = 3.626,
                     well_depth = 481.8,
                     rot_relax = 1)
       )

species(name = "C2H2",
    atoms = " C:2  H:2 ",
    thermo = (
       NASA( [  300.00,  1000.00], [ 2.013562000E+000,  1.519045000E-002, 
              -1.616319100E-005,  9.078991800E-009, -1.912746000E-012,
               2.612444000E+004,  8.805378000E+000] ),
       NASA( [ 1000.00,  5000.00], [ 4.436773000E+000,  5.376039100E-003, 
              -1.912816100E-006,  3.286378900E-010, -2.156709000E-014,
               2.566766220E+004, -2.800357220E+000] )
             ),
    transport = gas_transport(
                     geom = "linear",
                     diam = 4.1,
                     well_depth = 209,
                     rot_relax = 2.5)
       )

species(name = "CH2CO",
    atoms = " C:2  H:2  O:1 ",
    thermo = (
       NASA( [  300.00,  1000.00], [ 2.974971000E+000,  1.211871000E-002, 
              -2.345046000E-006, -6.466685000E-009,  3.905649000E-012,
              -7.632637000E+003,  8.673553000E+000] ),
       NASA( [ 1000.00,  5000.00], [ 6.038853180E+000,  5.804840000E-003, 
              -1.920954000E-006,  2.794485000E-010, -1.458868000E-014,
              -8.583434020E+003, -7.657823050E+000] )
             ),
    transport = gas_transport(
                     geom = "nonlinear",
                     diam = 3.97,
                     well_depth = 436,
                     rot_relax = 2)
       )

species(name = "C2H2O2",
    atoms = " C:2  H:2  O:2 ",
    thermo = (
       NASA( [  300.00,  1386.00], [ 1.881051200E+000,  2.363863680E-002, 
              -1.834432950E-005,  6.848429630E-009, -9.927336740E-013,
              -2.692801900E+004,  1.591547930E+001] ),
       NASA( [ 1386.00,  5000.00], [ 9.754385610E+000,  4.976459470E-003, 
              -1.744104830E-006,  2.755869940E-010, -1.619698920E-014,
              -2.958328960E+004, -2.618783290E+001] )
             ),
    transport = gas_transport(
                     geom = "linear",
                     diam = 3.85,
                     well_depth = 450)
       )

species(name = "C2H4",
    atoms = " C:2  H:4 ",
    thermo = (
       NASA( [  300.00,  1000.00], [-8.614879000E-001,  2.796161900E-002, 
              -3.388676900E-005,  2.785152000E-008, -9.737878900E-012,
               5.573047000E+003,  2.421148000E+001] ),
       NASA( [ 1000.00,  5000.00], [ 3.528416480E+000,  1.148518000E-002, 
              -4.418384800E-006,  7.844600000E-010, -5.266847800E-014,
               4.428290300E+003,  2.230392490E+000] )
             ),
    transport = gas_transport(
                     geom = "nonlinear",
                     diam = 3.971,
                     well_depth = 280.8,
                     rot_relax = 1.5)
       )

species(name = "CH3CHO",
    atoms = " C:2  H:4  O:1 ",
    thermo = (
       NASA( [  300.00,  1000.00], [ 2.505695000E+000,  1.336991000E-002, 
               4.671952900E-006, -1.128140000E-008,  4.263566100E-012,
              -2.124588000E+004,  1.335089000E+001] ),
       NASA( [ 1000.00,  5000.00], [ 5.868691160E+000,  1.079424000E-002, 
              -3.645529900E-006,  5.412911800E-010, -2.896843900E-014,
              -2.264571280E+004, -6.013216500E+000] )
             ),
    transport = gas_transport(
                     geom = "nonlinear",
                     diam = 3.97,
                     well_depth = 436,
                     rot_relax = 2)
       )

species(name = "C2H4O",
    atoms = " C:2  H:4  O:1 ",
    thermo = (
       NASA( [  300.00,  1000.00], [-1.303855000E+000,  2.824617200E-002, 
              -1.705934300E-005,  3.947534700E-009,  0.000000000E+000,
              -7.075599000E+003,  2.893526000E+001] ),
       NASA( [ 1000.00,  5000.00], [ 3.855432600E+000,  1.460817600E-002, 
              -5.261215400E-006,  6.281155000E-010,  0.000000000E+000,
              -8.518743000E+003,  2.141569110E+000] )
             ),
    transport = gas_transport(
                     geom = "nonlinear",
                     diam = 4.53,
                     well_depth = 362.6,
                     rot_relax = 1.5)
       )

species(name = "CH3COOH",
    atoms = " C:2  H:4  O:2 ",
    thermo = (
       NASA( [  300.00,  1000.00], [ 8.469285000E-001,  2.921450000E-002, 
              -1.864552000E-005,  4.640987200E-009,  0.000000000E+000,
              -5.367618000E+004,  2.119015000E+001] ),
       NASA( [ 1000.00,  5000.00], [ 6.916669360E+000,  1.289208000E-002, 
              -4.209903200E-006,  4.580495400E-010,  0.000000000E+000,
              -5.535084870E+004, -1.023921030E+001] )
             ),
    transport = gas_transport(
                     geom = "nonlinear",
                     diam = 3.97,
                     well_depth = 436,
                     rot_relax = 2)
       )

species(name = "C2H4O2",
    atoms = " C:2  H:4  O:2 ",
    thermo = (
       NASA( [  300.00,  1358.00], [ 4.376886850E+000,  1.594853580E-002, 
              -3.636727180E-006, -1.792128050E-009,  7.418989560E-013,
              -3.896894720E+004,  7.508882680E+000] ),
       NASA( [ 1358.00,  5000.00], [ 8.873065670E+000,  9.922572530E-003, 
              -3.348207790E-006,  5.155460090E-010, -2.975278200E-014,
              -4.100847390E+004, -1.827863140E+001] )
             ),
    transport = gas_transport(
                     geom = "nonlinear",
                     diam = 4.1,
                     well_depth = 430,
                     rot_relax = 2)
       )

species(name = "CH3CO3H",
    atoms = " C:2  H:4  O:3 ",
    thermo = (
       NASA( [  300.00,  1000.00], [ 4.847460000E+000,  2.185806100E-002, 
              -9.042846600E-006,  3.841453000E-010,  0.000000000E+000,
              -4.292091000E+004,  6.740726000E+000] ),
       NASA( [ 1000.00,  5000.00], [ 1.147771960E+001,  8.316671500E-003, 
              -1.850845600E-006,  1.032741600E-010,  0.000000000E+000,
              -4.510759080E+004, -2.902047230E+001] )
             ),
    transport = gas_transport(
                     geom = "nonlinear",
                     diam = 4.12,
                     well_depth = 443.2,
                     rot_relax = 1)
       )

species(name = "C2-OQOOH",
    atoms = " C:2  H:4  O:3 ",
    thermo = (
       NASA( [  300.00,  1380.00], [ 5.523825460E+000,  2.420683060E-002, 
              -1.528989740E-005,  5.017283620E-009, -6.964063580E-013,
              -3.234067890E+004,  3.572406450E+000] ),
       NASA( [ 1380.00,  5000.00], [ 1.240643390E+001,  9.472337840E-003, 
              -3.281079280E-006,  5.137722110E-010, -2.998728030E-014,
              -3.491231420E+004, -3.394798740E+001] )
             ),
    transport = gas_transport(
                     geom = "nonlinear",
                     diam = 4.41,
                     well_depth = 470.6,
                     rot_relax = 1.5)
       )

species(name = "DME-OQOOH",
    atoms = " C:2  H:4  O:4 ",
    thermo = (
       NASA( [  300.00,  1000.00], [ 4.847460000E+000,  2.185806100E-002, 
              -9.042846600E-006,  3.841453000E-010,  0.000000000E+000,
              -4.292091000E+004,  6.740726000E+000] ),
       NASA( [ 1000.00,  5000.00], [ 1.147771960E+001,  8.316671500E-003, 
              -1.850845600E-006,  1.032741600E-010,  0.000000000E+000,
              -4.510759080E+004, -2.902047230E+001] )
             ),
    transport = gas_transport(
                     geom = "nonlinear",
                     diam = 4.81,
                     well_depth = 403.4,
                     rot_relax = 1)
       )

species(name = "C2H6",
    atoms = " C:2  H:6 ",
    thermo = (
       NASA( [  300.00,  1000.00], [ 1.462539000E+000,  1.549467000E-002, 
               5.780506900E-006, -1.257832000E-008,  4.586267100E-012,
              -1.123918000E+004,  1.443229000E+001] ),
       NASA( [ 1000.00,  5000.00], [ 4.825975790E+000,  1.384043000E-002, 
              -4.557257900E-006,  6.724967200E-010, -3.598161100E-014,
              -1.271782960E+004, -5.239762580E+000] )
             ),
    transport = gas_transport(
                     geom = "nonlinear",
                     diam = 4.302,
                     well_depth = 252.3,
                     rot_relax = 1.5)
       )

species(name = "CH3OCH3",
    atoms = " C:2  H:6  O:1 ",
    thermo = (
       NASA( [  300.00,  1368.00], [ 1.507634500E+000,  2.399142280E-002, 
              -8.689105000E-006, -9.668357620E-011,  4.893193610E-013,
              -2.328108940E+004,  1.673172970E+001] ),
       NASA( [ 1368.00,  5000.00], [ 8.277326560E+000,  1.321355390E-002, 
              -4.532643620E-006,  7.053165070E-010, -4.099332830E-014,
              -2.619808970E+004, -2.151813760E+001] )
             ),
    transport = gas_transport(
                     geom = "nonlinear",
                     diam = 4.81,
                     well_depth = 303.4,
                     rot_relax = 1)
       )

species(name = "C2H5OH",
    atoms = " C:2  H:6  O:1 ",
    thermo = (
       NASA( [  300.00,  1000.00], [ 5.765358000E-001,  2.894512000E-002, 
              -1.610020000E-005,  3.591641000E-009,  0.000000000E+000,
              -2.963595000E+004,  2.270813000E+001] ),
       NASA( [ 1000.00,  5000.00], [ 4.347171200E+000,  1.862880000E-002, 
              -6.779467000E-006,  8.165926000E-010,  0.000000000E+000,
              -3.066157430E+004,  3.242473040E+000] )
             ),
    transport = gas_transport(
                     geom = "nonlinear",
                     diam = 4.53,
                     well_depth = 362.6,
                     rot_relax = 1.5)
       )

species(name = "GLIET",
    atoms = " C:2  H:6  O:2 ",
    thermo = (
       NASA( [  300.00,  1401.00], [ 8.754421840E-001,  3.474300450E-002, 
              -2.441092240E-005,  9.424127450E-009, -1.528246050E-012,
              -4.790842030E+004,  2.408799740E+001] ),
       NASA( [ 1401.00,  5000.00], [ 9.361373410E+000,  1.397274960E-002, 
              -4.603251930E-006,  6.964707790E-010, -3.967583760E-014,
              -5.077042650E+004, -2.116590580E+001] )
             ),
    transport = gas_transport(
                     geom = "nonlinear",
                     diam = 4.53,
                     well_depth = 362.6,
                     rot_relax = 1.5)
       )

species(name = "C2H5OOH",
    atoms = " C:2  H:6  O:2 ",
    thermo = (
       NASA( [  300.00,  1000.00], [ 2.239983000E+000,  3.109142900E-002, 
              -1.709337100E-005,  3.293797900E-009,  0.000000000E+000,
              -2.160185000E+004,  1.581743000E+001] ),
       NASA( [ 1000.00,  5000.00], [ 9.146119070E+000,  1.446114000E-002, 
              -4.551200200E-006,  4.757800300E-010,  0.000000000E+000,
              -2.366906070E+004, -2.058992500E+001] )
             ),
    transport = gas_transport(
                     geom = "nonlinear",
                     diam = 4.53,
                     well_depth = 362.6,
                     rot_relax = 1.5)
       )

species(name = "C3H2",
    atoms = " C:3  H:2 ",
    thermo = (
       NASA( [  300.00,  1000.00], [ 3.166714000E+000,  2.482572000E-002, 
              -4.591637000E-005,  4.268019000E-008, -1.482152000E-011,
               6.350421000E+004,  8.869446000E+000] ),
       NASA( [ 1000.00,  5000.00], [ 7.670996420E+000,  2.748749000E-003, 
              -4.370943000E-007, -6.455599000E-011,  1.663887000E-014,
               6.259720920E+004, -1.236899260E+001] )
             ),
    transport = gas_transport(
                     geom = "nonlinear",
                     diam = 4.1,
                     well_depth = 209,
                     rot_relax = 1)
       )

species(name = "AC3H4",
    atoms = " C:3  H:4 ",
    thermo = (
       NASA( [  300.00,  1400.00], [ 2.539830900E+000,  1.633437000E-002, 
              -1.764950000E-006, -4.647365200E-009,  1.729131100E-012,
               2.251243000E+004,  9.935702300E+000] ),
       NASA( [ 1400.00,  5000.00], [ 9.776251450E+000,  5.302138200E-003, 
              -3.701117900E-007, -3.026386100E-010,  5.089581100E-014,
               1.954973140E+004, -3.077059090E+001] )
             ),
    transport = gas_transport(
                     geom = "linear",
                     diam = 4.76,
                     well_depth = 252)
       )

species(name = "PC3H4",
    atoms = " C:3  H:4 ",
    thermo = (
       NASA( [  300.00,  1400.00], [ 3.029730100E+000,  1.498961000E-002, 
              -1.398500000E-006, -3.969618900E-009,  1.388217000E-012,
               2.148408000E+004,  8.004593800E+000] ),
       NASA( [ 1400.00,  5000.00], [ 9.768101510E+000,  5.219150800E-003, 
              -3.753139900E-007, -2.992190900E-010,  5.107878000E-014,
               1.860277400E+004, -3.020678600E+001] )
             ),
    transport = gas_transport(
                     geom = "linear",
                     diam = 4.76,
                     well_depth = 252,
                     rot_relax = 1)
       )

species(name = "C2H3CHO",
    atoms = " C:3  H:4  O:1 ",
    thermo = (
       NASA( [  300.00,  1393.00], [ 2.923551620E-001,  3.543214170E-002, 
              -2.949363240E-005,  1.281001240E-008, -2.261441080E-012,
              -1.165215840E+004,  2.288782800E+001] ),
       NASA( [ 1393.00,  5000.00], [ 1.041846070E+001,  9.489633210E-003, 
              -3.293105290E-006,  5.162792030E-010, -3.015872910E-014,
              -1.496297900E+004, -3.072325110E+001] )
             ),
    transport = gas_transport(
                     geom = "nonlinear",
                     diam = 4.12,
                     well_depth = 443.2,
                     rot_relax = 1)
       )

species(name = "C3H4O2",
    atoms = " C:3  H:4  O:2 ",
    thermo = (
       NASA( [  300.00,  1404.00], [ 1.474859870E-001,  4.647062960E-002, 
              -4.519017600E-005,  2.196410080E-008, -4.162191250E-012,
              -3.318092550E+004,  2.421829340E+001] ),
       NASA( [ 1404.00,  5000.00], [ 1.305774770E+001,  9.069051200E-003, 
              -3.081892610E-006,  4.764813800E-010, -2.756692770E-014,
              -3.692748250E+004, -4.252737400E+001] )
             ),
    transport = gas_transport(
                     geom = "nonlinear",
                     diam = 4.12,
                     well_depth = 443.2,
                     rot_relax = 1)
       )

species(name = "C3H4O3",
    atoms = " C:3  H:4  O:3 ",
    thermo = (
       NASA( [  300.00,  1388.00], [ 2.089815350E+000,  3.837152260E-002, 
              -2.825904990E-005,  1.042991340E-008, -1.531404070E-012,
              -5.381998190E+004,  2.233385300E+001] ),
       NASA( [ 1388.00,  5000.00], [ 1.375306750E+001,  1.080542070E-002, 
              -3.642301590E-006,  5.607309530E-010, -3.236599230E-014,
              -5.778396620E+004, -4.010194650E+001] )
             ),
    transport = gas_transport(
                     geom = "nonlinear",
                     diam = 4.82,
                     well_depth = 487.9,
                     rot_relax = 1)
       )

species(name = "C3H6",
    atoms = " C:3  H:6 ",
    thermo = (
       NASA( [  300.00,  1000.00], [ 1.493307000E+000,  2.092517000E-002, 
               4.486793800E-006, -1.668911900E-008,  7.158146000E-012,
               1.074826000E+003,  1.614534000E+001] ),
       NASA( [ 1000.00,  5000.00], [ 6.732316630E+000,  1.490834000E-002, 
              -4.949899000E-006,  7.212022100E-010, -3.766203900E-014,
              -9.236230570E+002, -1.331376840E+001] )
             ),
    transport = gas_transport(
                     geom = "nonlinear",
                     diam = 4.14,
                     well_depth = 307.8,
                     rot_relax = 1)
       )

species(name = "CH3COCH3",
    atoms = " C:3  H:6  O:1 ",
    thermo = (
       NASA( [  300.00,  1374.00], [ 1.307671630E+000,  2.920217420E-002, 
              -1.190456170E-005,  6.521500870E-010,  4.677512030E-013,
              -2.753282690E+004,  1.963950250E+001] ),
       NASA( [ 1374.00,  5000.00], [ 9.914265800E+000,  1.460307090E-002, 
              -5.060857650E-006,  7.926828550E-010, -4.627396450E-014,
              -3.111680550E+004, -2.861165370E+001] )
             ),
    transport = gas_transport(
                     geom = "nonlinear",
                     diam = 4.82,
                     well_depth = 411,
                     rot_relax = 1)
       )

species(name = "C2H5CHO",
    atoms = " C:3  H:6  O:1 ",
    thermo = (
       NASA( [  300.00,  1378.00], [ 2.163084440E+000,  2.955012640E-002, 
              -1.524462520E-005,  3.495039470E-009, -2.388966270E-013,
              -2.422601370E+004,  1.611533480E+001] ),
       NASA( [ 1378.00,  5000.00], [ 1.024291480E+001,  1.396419890E-002, 
              -4.762480010E-006,  7.381057060E-010, -4.277595030E-014,
              -2.741451370E+004, -2.853573480E+001] )
             ),
    transport = gas_transport(
                     geom = "nonlinear",
                     diam = 4.82,
                     well_depth = 411,