units(length = "cm", time = "s", quantity = "mol", act_energy = "cal/mol")

ideal_gas(name = "gas",
      elements = " C  H  O Ar N",
      species = """CELL  HCE  LIGC  LIGH  LIGO CH4 CO CO2 H2 H2O O2 N2 AR C2H6 C2H4 C2H2 C3H8 C3H6 C6H6 C7H8 C10H8 C4H8 C4H10 CH3CHCH3CH3 C6H4CH3CH3 C6H5CH2CH3
                  """,
      reactions = "all",
      transport = "Mix",
      initial_state = state(temperature = 300.0,
                        pressure = OneAtm)    )
						
#-------------------------------------------------------------------------------
#  Species data 
#-------------------------------------------------------------------------------

species(name = "CELL",
    atoms = " C:6 H:10 O:5 ",
    thermo = const_cp(
			t0 = 298.15,
			s0 = (5.6, 'J/mol/K'),
			h0 = (-246584.0, 'cal/mol'),
			cp0 = (289.0, 'J/mol/K')
             ),
	transport = gas_transport(
                     geom = "nonlinear",
                     diam = 10.0,
                     well_depth = 492)
		)	
		

species(name = "HCE",
    atoms = " C:5 H:8 O:4 ",
    thermo = const_cp(
			t0 = 298.15,
			s0 = (5.6, 'J/mol/K'),
			h0 = (-188497.0, 'cal/mol'),
			cp0 = (289.0, 'J/mol/K')
             ),
	transport = gas_transport(
                     geom = "nonlinear",
                     diam = 10.0,
                     well_depth = 492)	
		)
		
		
species(name = "LIGC",
    atoms = " C:15 H:14 O:4 ",
    thermo = const_cp(
			t0 = 298.15,
			s0 = (5.6, 'J/mol/K'),
			h0 = (-189011.0, 'cal/mol'),
			cp0 = (289.0, 'J/mol/K')
             ),
	transport = gas_transport(
                     geom = "nonlinear",
                     diam = 12.0,
                     well_depth = 492)	

		)
		
species(name = "LIGO",
    atoms = " C:20 H:22 O:10 ",
    thermo = const_cp(
			t0 = 298.15,
			s0 = (5.6, 'J/mol/K'),
			h0 = (-455398.0, 'cal/mol'),
			cp0 = (289.0, 'J/mol/K')
             ),
	transport = gas_transport(
                     geom = "nonlinear",
                     diam = 12.0,
                     well_depth = 492)
		)
		
species(name = "LIGH",
    atoms = " C:22 H:28 O:9 ",
    thermo = const_cp(
			t0 = 298.15,
			s0 = (5.6, 'J/mol/K'),
			h0 = (-415929.0, 'cal/mol'),
			cp0 = (289.0, 'J/mol/K')
             ),
	transport = gas_transport(
                     geom = "nonlinear",
                     diam = 12.0,
                     well_depth = 492)	
		)
		

species(name = "CO2",
    atoms = " C:1  O:2 ",
    thermo = (
       NASA( [  300.00,  1000.00], [ 2.275724000E+000,  9.922072300E-003, 
              -1.040911000E-005,  6.866685900E-009, -2.117280100E-012,
              -4.837314000E+004,  1.018849000E+001] ),
       NASA( [ 1000.00,  5000.00], [ 4.453625820E+000,  3.140168000E-003, 
              -1.278411000E-006,  2.393996100E-010, -1.669033000E-014,
              -4.896695240E+004, -9.554200070E-001] )
             ),
    transport = gas_transport(
                     geom = "linear",
                     diam = 3.763,
                     well_depth = 244,
                     polar = 2.65,
                     rot_relax = 2.1)
       )	   

species(name = "CO",
    atoms = " C:1  O:1 ",
    thermo = (
       NASA( [  300.00,  1000.00], [ 3.262451000E+000,  1.511941000E-003, 
              -3.881755200E-006,  5.581943800E-009, -2.474951000E-012,
              -1.431054000E+004,  4.848897000E+000] ),
       NASA( [ 1000.00,  5000.00], [ 3.025076170E+000,  1.442689000E-003, 
              -5.630827200E-007,  1.018581000E-010, -6.910951100E-015,
              -1.426834990E+004,  6.108225210E+000] )
             ),
    transport = gas_transport(
                     geom = "linear",
                     diam = 3.65,
                     well_depth = 98.1,
                     polar = 1.95,
                     rot_relax = 1.8)
       )

species(name = "H2O",
    atoms = " H:2  O:1 ",
    thermo = (
       NASA( [  300.00,  1000.00], [ 3.386842000E+000,  3.474982000E-003, 
              -6.354695900E-006,  6.968580400E-009, -2.506588000E-012,
              -3.020811000E+004,  2.590232000E+000] ),
       NASA( [ 1000.00,  5000.00], [ 2.672145690E+000,  3.056292900E-003, 
              -8.730260700E-007,  1.200996000E-010, -6.391617900E-015,
              -2.989921150E+004,  6.862811250E+000] )
             ),
    transport = gas_transport(
                     geom = "nonlinear",
                     diam = 2.605,
                     well_depth = 572.4,
                     dipole = 1.844,
                     rot_relax = 4)
       )

species(name = "O2",
    atoms = " O:2 ",
    thermo = (
       NASA( [  300.00,  1000.00], [ 3.212936000E+000,  1.127486100E-003, 
              -5.756149900E-007,  1.313877000E-009, -8.768553900E-013,
              -1.005249000E+003,  6.034739000E+000] ),
       NASA( [ 1000.00,  5000.00], [ 3.697576850E+000,  6.135196900E-004, 
              -1.258842000E-007,  1.775281000E-011, -1.136435000E-015,
              -1.233929660E+003,  3.189171250E+000] )
             ),
    transport = gas_transport(
                     geom = "linear",
                     diam = 3.458,
                     well_depth = 107.4,
                     polar = 1.6,
                     rot_relax = 3.8)
       )
	   
species(name = "CH4",
    atoms = " C:1  H:4 ",
    thermo = (
       NASA( [  300.00,  1000.00], [ 7.787417000E-001,  1.747668000E-002, 
              -2.783409000E-005,  3.049708000E-008, -1.223931000E-011,
              -9.825228000E+003,  1.372219000E+001] ),
       NASA( [ 1000.00,  5000.00], [ 1.683465640E+000,  1.023724000E-002, 
              -3.875128200E-006,  6.785584900E-010, -4.503423100E-014,
              -1.008077730E+004,  9.623475750E+000] )
             ),
    transport = gas_transport(
                     geom = "nonlinear",
                     diam = 3.746,
                     well_depth = 141.4,
                     polar = 2.6,
                     rot_relax = 13)
       )


species(name = "H2",
    atoms = " H:2 ",
    thermo = (
       NASA( [  300.00,  1000.00], [ 3.298124000E+000,  8.249441200E-004, 
              -8.143014700E-007, -9.475434300E-011,  4.134872000E-013,
              -1.012521000E+003, -3.294094000E+000] ),
       NASA( [ 1000.00,  5000.00], [ 2.991422200E+000,  7.000644100E-004, 
              -5.633828000E-008, -9.231578200E-012,  1.582752000E-015,
              -8.350335460E+002, -1.355106410E+000] )
             ),
    transport = gas_transport(
                     geom = "linear",
                     diam = 2.92,
                     well_depth = 38,
                     polar = 0.79,
                     rot_relax = 280)
       )



species(name = "C2H4",
    atoms = " C:2  H:4 ",
    thermo = (
       NASA( [  300.00,  1000.00], [-8.614879000E-001,  2.796161900E-002, 
              -3.388676900E-005,  2.785152000E-008, -9.737878900E-012,
               5.573047000E+003,  2.421148000E+001] ),
       NASA( [ 1000.00,  5000.00], [ 3.528416480E+000,  1.148518000E-002, 
              -4.418384800E-006,  7.844600000E-010, -5.266847800E-014,
               4.428290300E+003,  2.230392490E+000] )
             ),
    transport = gas_transport(
                     geom = "nonlinear",
                     diam = 3.971,
                     well_depth = 280.8,
                     rot_relax = 1.5)
       )	   
	   
species(name = "AR",
    atoms = " Ar:1 ",
    thermo = (
       NASA( [  300.00,  1000.00], [ 2.500000000E+000,  0.000000000E+000, 
               0.000000000E+000,  0.000000000E+000,  0.000000000E+000,
              -7.453751000E+002,  4.366001000E+000] ),
       NASA( [ 1000.00,  5000.00], [ 3.125000090E+000, -1.406250500E-003, 
               9.375004900E-007, -1.562500800E-010,  0.000000000E+000,
              -9.406875830E+002,  1.038236940E+000] )
             ),
    transport = gas_transport(
                     geom = "atom",
                     diam = 3.33,
                     well_depth = 136.5)
       )

species(name = "N2",
    atoms = " N:2 ",
    thermo = (
       NASA( [  300.00,  1000.00], [ 3.298677000E+000,  1.408239900E-003, 
              -3.963221800E-006,  5.641514800E-009, -2.444854000E-012,
              -1.020900000E+003,  3.950372000E+000] ),
       NASA( [ 1000.00,  5000.00], [ 2.926637880E+000,  1.487977000E-003, 
              -5.684760300E-007,  1.009704000E-010, -6.753350900E-015,
              -9.227953840E+002,  5.980540180E+000] )
             ),
    transport = gas_transport(
                     geom = "linear",
                     diam = 3.621,
                     well_depth = 97.53,
                     polar = 1.76,
                     rot_relax = 4)
       )



species(name = "C2H2",
    atoms = " C:2  H:2 ",
    thermo = (
       NASA( [  300.00,  1000.00], [ 2.013562000E+000,  1.519045000E-002, 
              -1.616319100E-005,  9.078991800E-009, -1.912746000E-012,
               2.612444000E+004,  8.805378000E+000] ),
       NASA( [ 1000.00,  5000.00], [ 4.436773000E+000,  5.376039100E-003, 
              -1.912816100E-006,  3.286378900E-010, -2.156709000E-014,
               2.566766220E+004, -2.800357220E+000] )
             ),
    transport = gas_transport(
                     geom = "linear",
                     diam = 4.1,
                     well_depth = 209,
                     rot_relax = 2.5)
       )

species(name = "C2H6",
    atoms = " C:2  H:6 ",
    thermo = (
       NASA( [  300.00,  1000.00], [ 1.462539000E+000,  1.549467000E-002, 
               5.780506900E-006, -1.257832000E-008,  4.586267100E-012,
              -1.123918000E+004,  1.443229000E+001] ),
       NASA( [ 1000.00,  5000.00], [ 4.825975790E+000,  1.384043000E-002, 
              -4.557257900E-006,  6.724967200E-010, -3.598161100E-014,
              -1.271782960E+004, -5.239762580E+000] )
             ),
    transport = gas_transport(
                     geom = "nonlinear",
                     diam = 4.302,
                     well_depth = 252.3,
                     rot_relax = 1.5)
       )


species(name = "C3H6",
    atoms = " C:3  H:6 ",
    thermo = (
       NASA( [  300.00,  1000.00], [ 1.493307000E+000,  2.092517000E-002, 
               4.486793800E-006, -1.668911900E-008,  7.158146000E-012,
               1.074826000E+003,  1.614534000E+001] ),
       NASA( [ 1000.00,  5000.00], [ 6.732316630E+000,  1.490834000E-002, 
              -4.949899000E-006,  7.212022100E-010, -3.766203900E-014,
              -9.236230570E+002, -1.331376840E+001] )
             ),
    transport = gas_transport(
                     geom = "nonlinear",
                     diam = 4.14,
                     well_depth = 307.8,
                     rot_relax = 1)
       )

species(name = "C3H8",
    atoms = " C:3  H:8 ",
    thermo = (
       NASA( [  300.00,  1000.00], [ 8.969210000E-001,  2.668985900E-002, 
               5.431425100E-006, -2.126000000E-008,  9.243330100E-012,
              -1.395492000E+004,  1.935533000E+001] ),
       NASA( [ 1000.00,  5000.00], [ 7.525306020E+000,  1.889034000E-002, 
              -6.283924000E-006,  9.179372800E-010, -4.812409600E-014,
              -1.646462260E+004, -1.784452020E+001] )
             ),
    transport = gas_transport(
                     geom = "nonlinear",
                     diam = 4.81,
                     well_depth = 303.4,
                     rot_relax = 1)
       )

species(name = "C6H6",
    atoms = " C:6  H:6 ",
    thermo = (
       NASA( [  300.00,  1000.00], [-3.138012000E+000,  4.723103000E-002, 
              -2.962207000E-006, -3.262819000E-008,  1.718691000E-011,
               8.890030000E+003,  3.657573000E+001] ),
       NASA( [ 1000.00,  5000.00], [ 1.291090670E+001,  1.723296000E-002, 
              -5.024210200E-006,  5.893496800E-010, -1.947521000E-014,
               3.664372790E+003, -5.002811840E+001] )
             ),
    transport = gas_transport(
                     geom = "nonlinear",
                     diam = 5.23,
                     well_depth = 468.5,
                     polar = 10.3,
                     rot_relax = 1)
       )

species(name = "C7H8",
    atoms = " C:7  H:8 ",
    thermo = (
       NASA( [  300.00,  1000.00], [ -4.695182000E+00,   6.951080300E-02, 
               -4.384450200E-05,   1.040464800E-08,   0.000000000E+00,
                4.693355000E+03,   4.640732000E+01] ),
       NASA( [ 1000.00,  5000.00], [  9.889287000E+00,   3.123517000E-02, 
               -1.104664100E-05,   1.297951000E-09,   0.000000000E+00,
                5.907564170E+02,  -2.942635460E+01] )
             ),
    transport = gas_transport(
                     geom = "nonlinear",
                     diam = 5.68,
                     well_depth = 495.3,
                     polar = 12.3,
                     dipole = 0.43,
                     rot_relax = 1)
       )

       
species(name = "C10H8",
    atoms = " C:10  H:8 ",
    thermo = (
       NASA( [  300.00,  1401.00], [-8.836459880E+000,  1.093005670E-001, 
              -9.552009140E-005,  4.216476690E-008, -7.398517100E-012,
               1.665333660E+004,  6.210647660E+001] ),
       NASA( [ 1401.00,  5000.00], [ 2.340232140E+001,  2.424344270E-002, 
              -8.362820160E-006,  1.306201110E-009, -7.611537480E-014,
               6.519413290E+003, -1.074332080E+002] )
             ),
    transport = gas_transport(
                     geom = "nonlinear",
                     diam = 6.18,
                     well_depth = 630.4,
                     polar = 16.5,
                     rot_relax = 1)
       )

species(name = "C4H8",
    atoms = " C:4  H:8 ",
    thermo = (
       NASA( [  300.00,  1000.00], [4.42674073E+000,  6.63946249E-003, 
              6.80652815E-005,  -9.28753562E-008, 3.73473949E-011,
               -2.11532796E+003,  7.54694860E+000] ),
       NASA( [ 1000.00,  5000.00], [ 8.02147991E+000,  2.26010707E-002, 
              -8.31284033E-006,  1.37803072E-009, -8.42175459E-014,
              -4.30852153E+003, -1.71170697E+001] )
             ),
    transport = gas_transport(
                     geom = "nonlinear",
                     diam = 6.18,
                     well_depth = 630.4,
                     polar = 16.5,
                     rot_relax = 1)
       )

#THESE ARE ALL FAKE!!!

species(name = "C4H10",
    atoms = " C:4  H:10 ",
    thermo = (
       NASA( [  300.00,  1000.00], [6.14746806E+000,  1.55947389E-004, 
              9.67913517E-005,  -1.25483910E-007, 4.97816555E-011,
               -1.75994402E+004,  -1.09409879E+000] ),
       NASA( [ 1000.00,  5000.00], [ 9.44535834E+000,  2.57858073E-002, 
              -9.236129122E-06,  1.48632755E-009, -8.87897158E-014,
              -2.01382165E+004, -2.63470076E+001] )
             ),
    transport = gas_transport(
                     geom = "nonlinear",
                     diam = 6.18,
                     well_depth = 630.4,
                     polar = 16.5,
                     rot_relax = 1)
       )

species(name = "CH3CHCH3CH3",
    atoms = " C:4  H:10 ",
    thermo = (
       NASA( [  300.00,  1000.00], [4.45479276E+000,  8.26057985E-003, 
              8.29886664E-005,  -1.14647642E-007, 4.64570101E-11,
               -1.84593931E+004,  4.92743175E+000] ),
       NASA( [ 1000.00,  5000.00], [ 9.76991245E+000,  2.5499721E-002, 
              -9.14142932E-006,  1.47328271E-009, -8.80800188E-014,
              -2.14052647E+004, -3.00329101E+001] )
             ),
    transport = gas_transport(
                     geom = "nonlinear",
                     diam = 6.18,
                     well_depth = 630.4,
                     polar = 16.5,
                     rot_relax = 1)
       )

species(name = "C6H4CH3CH3",
    atoms = " C:4  H:8 ",
    thermo = (
       NASA( [  300.00,  1000.00], [4.42674073E+000,  6.63946249E-003, 
              6.80652815E-005,  -9.28753562E-008, 3.73473949E-011,
               -2.11532796E+003,  7.54694860E+000] ),
       NASA( [ 1000.00,  5000.00], [ 8.02147991E+000,  2.26010707E-002, 
              -8.31284033E-006,  1.37803072E-009, -8.42175459E-014,
              -4.30852153E+003, -1.71170697E+001] )
             ),
    transport = gas_transport(
                     geom = "nonlinear",
                     diam = 6.18,
                     well_depth = 630.4,
                     polar = 16.5,
                     rot_relax = 1)
       )

species(name = "C6H5CH2CH3",
    atoms = " C:4  H:8 ",
    thermo = (
       NASA( [  300.00,  1000.00], [4.42674073E+000,  6.63946249E-003, 
              6.80652815E-005,  -9.28753562E-008, 3.73473949E-011,
               -2.11532796E+003,  7.54694860E+000] ),
       NASA( [ 1000.00,  5000.00], [ 8.02147991E+000,  2.26010707E-002, 
              -8.31284033E-006,  1.37803072E-009, -8.42175459E-014,
              -4.30852153E+003, -1.71170697E+001] )
             ),
    transport = gas_transport(
                     geom = "nonlinear",
                     diam = 6.18,
                     well_depth = 630.4,
                     polar = 16.5,
                     rot_relax = 1)
       )
